<NUMBER OF ZONES> 4
<NUMBER OF NODES> 4
<FIRST THRU NODE> 1
<NUMBER OF LINKS> 5
<ORIGINAL HEADER>~ 	Init node 	Term node 	Capacity 	Length 	Free Flow Time 	B	Power	Speed limit 	Toll 	Type	;
<END OF METADATA>


~	init_node	term_node	capacity	length	free_flow_time	b	power	speed	toll	link_type	;
	1	3	1	1	1	1	1	0	0	1	;
	1	2	1	10	1	1	1	0	0	1	;
	2	3	1	1	1	1	1	0	0	1	;
	3	4	1	10	1	1	1	0	0	1	;
	2	4	1	1	1	1	1	0	0	1	;
