<NUMBER OF ZONES> 4
<TOTAL OD FLOW> 100.0
<END OF METADATA>


Origin 	1
    1 :      0.0;     2 :    0.0;     3 :    0.0;     4 :    100.0;

Origin 	2
    1 :    0.0;     2 :      0.0;     3 :    0.0;     4 :    0.0;

Origin 	3
    1 :    0.0;     2 :    0.0;     3 :      0.0;     4 :    0.0;

Origin 	4
    1 :    0.0;     2 :    0.0;     3 :    0.0;     4 :      0.0;
